03_OpenDSS_Circuits/ERaleigh_Circuit_1/UGLines.DSS
New Line.9GD25_PGZ90_2881982 Bus1=26259236.1.2.3 Bus2=26259145.1.2.3 LineCode=PEC3_750KCMIL_AL_XLPE_LC_SHIELD_ Phases= 3  Length=208.178400 units=m
New Line.PJ126_PJ126_2892040 Bus1=26512068.1.2.3 Bus2=26512071.1.2.3 LineCode=PEC3_#1/0_AWG_AL_XLPE_JACKET_CN_ Phases= 3  Length=4.267200 units=m
New Line.11F134_144581_103013411 Bus1=103004798.1.2.3 Bus2=103004800.1.2.3 LineCode=PEC3_#1/0_AWG_AL_XLPE_JACKET_CN_ Phases= 3  Length=90.693240 units=m
New Line.MA843_GS83BK_2836548 Bus1=25028592.1.2.3 Bus2=27043772.1.2.3 LineCode=PEC3_#1/0_AWG_AL_XLPE_NON-JACKET Phases= 3  Length=56.083200 units=m
New Line.RD506_PGZ90_2853003 Bus1=26259149.1.2.3 Bus2=27043862.1.2.3 LineCode=PEC3_#1/0_AWG_AL_XLPE_JACKET_CN_ Phases= 3  Length=190.195200 units=m
New Line.145754_145754_103033626 Bus1=103013365.1.2.3 Bus2=103013366.1.2.3 LineCode=PEC3_#1/0_AWG_AL_XLPE_JACKET_CN_ Phases= 3  Length=3.718560 units=m
New Line.145754_145754_103033629 Bus1=103013368.1.2.3 Bus2=103013369.1.2.3 LineCode=PEC3_#1/0_AWG_AL_XLPE_JACKET_CN_ Phases= 3  Length=5.614416 units=m
New Line.PGZ90_PJ126_2852999 Bus1=26259153.1.2.3 Bus2=26424757.1.2.3 LineCode=PEC3_750KCMIL_AL_XLPE_LC_SHIELD_ Phases= 3  Length=143.865600 units=m
New Line.PDP28_REA79_2836490 Bus1=1823870.1.2.3 Bus2=26595445.1.2.3 LineCode=PEC3_750KCMIL_AL_XLPE_LC_SHIELD_ Phases= 3  Length=73.761600 units=m
New Line.11F134_11F134_2890570 Bus1=26424531.1.2.3 Bus2=103332076.1.2.3 LineCode=PEC3_#1/0_AWG_AL_XLPE_JACKET_CN_ Phases= 3  Length=2.133600 units=m
New Line.11F134_11F134_2890571 Bus1=26424531.1 Bus2=103332079.1 LineCode=PEC1_#1/0_AWG_AL_XLPE_JACKET_CN_ Phases= 1  Length=4.876800 units=m
New Line.PGZ90_PGZ90_2888486 Bus1=26259150.1.2.3 Bus2=26259151.1.2.3 LineCode=PEC3_#1/0_AWG_AL_XLPE_JACKET_CN_ Phases= 3  Length=4.267200 units=m
New Line.PGZ90_PGZ90_2888485 Bus1=26259147.1.2.3 Bus2=26259148.1.2.3 LineCode=PEC3_750KCMIL_AL_XLPE_LC_SHIELD_ Phases= 3  Length=19.812000 units=m
New Line.145754_145754_103033531 Bus1=103013278.1.2.3 Bus2=103013321.1.2.3 LineCode=PEC3_750KCMIL_AL_XLPE_LC_SHIELD_ Phases= 3  Length=19.059144 units=m
New Line.9GY40_11F134_2895223 Bus1=26424527.1.2.3 Bus2=103004792.1.2.3 LineCode=PEC3_750KCMIL_AL_XLPE_LC_SHIELD_ Phases= 3  Length=66.141600 units=m
New Line.PJ126_PJ126_2892039 Bus1=26512066.1.2.3 Bus2=26512070.1.2.3 LineCode=PEC3_#1/0_AWG_AL_XLPE_JACKET_CN_ Phases= 3  Length=3.657600 units=m
New Line.GT18BK_11F134_2890990 Bus1=26449577.1.2.3 Bus2=26449578.1.2.3 LineCode=PEC3_750KCMIL_AL_XLPE_LC_SHIELD_ Phases= 3  Length=215.798400 units=m
New Line.BUS_103033344 Bus1=103013238.1.2.3 Bus2=103013242.1.2.3 LineCode=NONE Phases= 3  Length=0.000305 units=m
New Line.BUS_103033343 Bus1=103013238.1.2.3 Bus2=103013241.1.2.3 LineCode=NONE Phases= 3  Length=0.000305 units=m
New Line.BUS_103033342 Bus1=103013238.1.2.3 Bus2=103013240.1.2.3 LineCode=NONE Phases= 3  Length=0.000305 units=m
New Line.BUS_103033341 Bus1=103013239.1.2.3 Bus2=103013238.1.2.3 LineCode=NONE Phases= 3  Length=0.000305 units=m
New Line.GS90BK_11H260_2888023 Bus1=103004824.2 Bus2=27043849.2 LineCode=PEC1_#1/0_AWG_AL_XLPE_JACKET_CN_ Phases= 1  Length=21.031200 units=m
New Line.PJ126_145754_103033398 Bus1=26424752.1.2.3 Bus2=103013265.1.2.3 LineCode=PEC3_750KCMIL_AL_XLPE_LC_SHIELD_ Phases= 3  Length=46.561248 units=m
New Line.144581_GT36BK_103013422 Bus1=103004800.3 Bus2=103004805.3 LineCode=PEC1_#1/0_AWG_AL_XLPE_JACKET_CN_ Phases= 1  Length=94.454472 units=m
New Line.11F134_11F134_2890568 Bus1=26424528.1.2.3 Bus2=103332075.1.2.3 LineCode=PEC3_#1/0_AWG_AL_XLPE_JACKET_CN_ Phases= 3  Length=3.962400 units=m
New Line.11F134_11F134_2890569 Bus1=26424532.1.2.3 Bus2=26424523.1.2.3 LineCode=PEC3_#1/0_AWG_AL_XLPE_JACKET_CN_ Phases= 3  Length=3.657600 units=m
New Line.11F134_11F134_2890566 Bus1=26424530.1.2.3 Bus2=26424529.1.2.3 LineCode=PEC3_750KCMIL_AL_XLPE_LC_SHIELD_ Phases= 3  Length=13.106400 units=m
New Line.BUS_2913799 Bus1=26449576.1.2.3 Bus2=27145133.1.2.3 LineCode=NONE Phases= 3  Length=0.000305 units=m
New Line.BUS_2913798 Bus1=26449576.1.2.3 Bus2=27145132.1.2.3 LineCode=NONE Phases= 3  Length=0.000305 units=m
New Line.BUS_2913797 Bus1=26449576.1.2.3 Bus2=27145131.1.2.3 LineCode=NONE Phases= 3  Length=0.000305 units=m
New Line.BUS_2913796 Bus1=27145130.1.2.3 Bus2=26449576.1.2.3 LineCode=NONE Phases= 3  Length=0.000305 units=m
New Line.BUS_103033498 Bus1=103013299.1.2.3 Bus2=103013303.1.2.3 LineCode=NONE Phases= 3  Length=0.000305 units=m
New Line.BUS_103033496 Bus1=103013299.1.2.3 Bus2=103013301.1.2.3 LineCode=NONE Phases= 3  Length=0.000305 units=m
New Line.BUS_103033497 Bus1=103013299.1.2.3 Bus2=103013302.1.2.3 LineCode=NONE Phases= 3  Length=0.000305 units=m
New Line.BUS_103033495 Bus1=103013300.1.2.3 Bus2=103013299.1.2.3 LineCode=NONE Phases= 3  Length=0.000305 units=m
New Line.BUS_2913883 Bus1=26512065.1.2.3 Bus2=27145217.1.2.3 LineCode=NONE Phases= 3  Length=0.000305 units=m
New Line.BUS_2913886 Bus1=27145220.1.2.3 Bus2=26512065.1.2.3 LineCode=NONE Phases= 3  Length=0.000305 units=m
New Line.BUS_2913803 Bus1=26449575.1.2.3 Bus2=27145137.1.2.3 LineCode=NONE Phases= 3  Length=0.000305 units=m
New Line.BUS_2913885 Bus1=26512065.1.2.3 Bus2=27145219.1.2.3 LineCode=NONE Phases= 3  Length=0.000305 units=m
New Line.BUS_2913802 Bus1=26449575.1.2.3 Bus2=27145136.1.2.3 LineCode=NONE Phases= 3  Length=0.000305 units=m
New Line.BUS_2913884 Bus1=26512065.1.2.3 Bus2=27145218.1.2.3 LineCode=NONE Phases= 3  Length=0.000305 units=m
New Line.BUS_2913801 Bus1=26449575.1.2.3 Bus2=27145135.1.2.3 LineCode=NONE Phases= 3  Length=0.000305 units=m
New Line.BUS_2913800 Bus1=27145134.1.2.3 Bus2=26449575.1.2.3 LineCode=NONE Phases= 3  Length=0.000305 units=m
New Line.145754_145754_103033631 Bus1=103013319.1.2.3 Bus2=103013370.1.2.3 LineCode=PEC3_#1/0_AWG_AL_XLPE_JACKET_CN_ Phases= 3  Length=5.141976 units=m
New Line.145754_187M75_104868961 Bus1=103013317.1.2.3 Bus2=103603012.1.2.3 LineCode=PEC3_#1/0_AWG_AL_XLPE_JACKET_CN_ Phases= 3  Length=109.728000 units=m
New Line.145754_145754_103033634 Bus1=103013317.1.2.3 Bus2=103013371.1.2.3 LineCode=PEC3_#1/0_AWG_AL_XLPE_JACKET_CN_ Phases= 3  Length=3.179064 units=m
New Line.PGZ90_PGZ90_104098136 Bus1=103314247.1 Bus2=103317988.1 LineCode=PEC1_#1/0_AWG_AL_XLPE_JACKET_CN_ Phases= 1  Length=3.791712 units=m
New Line.9GY40_9GD25_2881984 Bus1=103004792.1.2.3 Bus2=26259236.1.2.3 LineCode=PEC3_750KCMIL_AL_XLPE_LC_SHIELD_ Phases= 3  Length=72.237600 units=m
