03_OpenDSS_Circuits/ERaleigh_Circuit_1/Loads.DSS
New Load.1992553_2 Phases= 1  Bus1=1992553.2 kV= 7.19976905311778  XFKVA=25.000000 PF= 0.966076893409833  NumCust=2.000000 ! KW= 0 
New Load.1992553_3 Phases= 1  Bus1=1992553.3 kV= 7.19976905311778  XFKVA=10.000000 PF= 0.968558366413024  NumCust=2.000000 ! KW= 0 
New Load.103602979_1 Phases= 1  Bus1=103602979.1 kV= 7.19976905311778  XFKVA=250.000000 PF= 0.96906915094419  NumCust=0.333000 ! KW= 0 
New Load.103602979_2 Phases= 1  Bus1=103602979.2 kV= 7.19976905311778  XFKVA=250.000000 PF= 0.966076893409833  NumCust=0.333000 ! KW= 0 
New Load.103602979_3 Phases= 1  Bus1=103602979.3 kV= 7.19976905311778  XFKVA=250.000000 PF= 0.968558366413024  NumCust=0.333000 ! KW= 0 
New Load.1992511_3 Phases= 1  Bus1=1992511.3 kV= 7.19976905311778  XFKVA=15.000000 PF= 0.968558366413024  NumCust=0.000000 ! KW= 0 
New Load.103317988_1 Phases= 1  Bus1=103317988.1 kV= 7.19976905311778  XFKVA=25.000000 PF= 0.96906915094419  NumCust=0.333000 ! KW= 0 
New Load.1992493_2 Phases= 1  Bus1=1992493.2 kV= 7.19976905311778  XFKVA=25.000000 PF= 0.966076893409833  NumCust=1.000000 ! KW= 0 
New Load.1992588_2 Phases= 1  Bus1=1992588.2 kV= 7.19976905311778  XFKVA=25.000000 PF= 0.966076893409833  NumCust=0.000000 ! KW= 0 
New Load.1992508_3 Phases= 1  Bus1=1992508.3 kV= 7.19976905311778  XFKVA=25.000000 PF= 0.968558366413024  NumCust=3.000000 ! KW= 0 
New Load.1823847_2 Phases= 1  Bus1=1823847.2 kV= 7.19976905311778  XFKVA=50.000000 PF= 0.966076893409833  NumCust=2.000000 ! KW= 0 
New Load.103332079_1 Phases= 1  Bus1=103332079.1 kV= 7.19976905311778  XFKVA=50.000000 PF= 0.96906915094419  NumCust=2.667000 ! KW= 0 
New Load.1823868_1 Phases= 1  Bus1=1823868.1 kV= 7.19976905311778  XFKVA=50.000000 PF= 0.96906915094419  NumCust=4.000000 ! KW= 0 
New Load.1823824_2 Phases= 1  Bus1=1823824.2 kV= 7.19976905311778  XFKVA=50.000000 PF= 0.966076893409833  NumCust=10.000000 ! KW= 0 
New Load.103013369_1 Phases= 1  Bus1=103013369.1 kV= 7.19976905311778  XFKVA=833.333333 PF= 0.96906915094419  NumCust=2.333000 ! KW= 0 
New Load.103013369_2 Phases= 1  Bus1=103013369.2 kV= 7.19976905311778  XFKVA=833.333333 PF= 0.966076893409833  NumCust=2.333000 ! KW= 0 
New Load.103013369_3 Phases= 1  Bus1=103013369.3 kV= 7.19976905311778  XFKVA=833.333333 PF= 0.968558366413024  NumCust=2.333000 ! KW= 0 
New Load.26621406_1 Phases= 1  Bus1=26621406.1 kV= 7.19976905311778  XFKVA=50.000000 PF= 0.96906915094419  NumCust=1.000000 ! KW= 0 
New Load.103013370_1 Phases= 1  Bus1=103013370.1 kV= 7.19976905311778  XFKVA=333.333333 PF= 0.96906915094419  NumCust=2.333000 ! KW= 0 
New Load.103013370_2 Phases= 1  Bus1=103013370.2 kV= 7.19976905311778  XFKVA=333.333333 PF= 0.966076893409833  NumCust=2.333000 ! KW= 0 
New Load.103013370_3 Phases= 1  Bus1=103013370.3 kV= 7.19976905311778  XFKVA=333.333333 PF= 0.968558366413024  NumCust=2.333000 ! KW= 0 
New Load.1765896_2 Phases= 1  Bus1=1765896.2 kV= 7.19976905311778  XFKVA=25.000000 PF= 0.966076893409833  NumCust=1.000000 ! KW= 0 
New Load.1823860_1 Phases= 1  Bus1=1823860.1 kV= 7.19976905311778  XFKVA=25.000000 PF= 0.96906915094419  NumCust=3.000000 ! KW= 0 
New Load.1823866_1 Phases= 1  Bus1=1823866.1 kV= 7.19976905311778  XFKVA=25.000000 PF= 0.96906915094419  NumCust=5.000000 ! KW= 0 
New Load.1992507_2 Phases= 1  Bus1=1992507.2 kV= 7.19976905311778  XFKVA=25.000000 PF= 0.966076893409833  NumCust=5.000000 ! KW= 0 
New Load.1992539_2 Phases= 1  Bus1=1992539.2 kV= 7.19976905311778  XFKVA=100.000000 PF= 0.966076893409833  NumCust=5.000000 ! KW= 0 
New Load.1992539_3 Phases= 1  Bus1=1992539.3 kV= 7.19976905311778  XFKVA=50.000000 PF= 0.968558366413024  NumCust=5.000000 ! KW= 0 
New Load.26259151_1 Phases= 1  Bus1=26259151.1 kV= 7.19976905311778  XFKVA=500.000000 PF= 0.96906915094419  NumCust=0.333000 ! KW= 0 
New Load.26259151_2 Phases= 1  Bus1=26259151.2 kV= 7.19976905311778  XFKVA=500.000000 PF= 0.966076893409833  NumCust=0.333000 ! KW= 0 
New Load.26259151_3 Phases= 1  Bus1=26259151.3 kV= 7.19976905311778  XFKVA=500.000000 PF= 0.968558366413024  NumCust=0.333000 ! KW= 0 
New Load.26512071_1 Phases= 1  Bus1=26512071.1 kV= 7.19976905311778  XFKVA=166.666667 PF= 0.96906915094419  NumCust=26.333000 ! KW= 0 
New Load.26512071_2 Phases= 1  Bus1=26512071.2 kV= 7.19976905311778  XFKVA=166.666667 PF= 0.966076893409833  NumCust=26.333000 ! KW= 0 
New Load.26512071_3 Phases= 1  Bus1=26512071.3 kV= 7.19976905311778  XFKVA=166.666667 PF= 0.968558366413024  NumCust=26.333000 ! KW= 0 
New Load.26512070_1 Phases= 1  Bus1=26512070.1 kV= 7.19976905311778  XFKVA=333.333333 PF= 0.96906915094419  NumCust=26.333000 ! KW= 0 
New Load.26512070_2 Phases= 1  Bus1=26512070.2 kV= 7.19976905311778  XFKVA=333.333333 PF= 0.966076893409833  NumCust=26.333000 ! KW= 0 
New Load.26512070_3 Phases= 1  Bus1=26512070.3 kV= 7.19976905311778  XFKVA=333.333333 PF= 0.968558366413024  NumCust=26.333000 ! KW= 0 
New Load.26824809_1 Phases= 1  Bus1=26824809.1 kV= 7.19976905311778  XFKVA=250.000000 PF= 0.96906915094419  NumCust=22.667000 ! KW= 0 
New Load.26824809_2 Phases= 1  Bus1=26824809.2 kV= 7.19976905311778  XFKVA=250.000000 PF= 0.966076893409833  NumCust=22.667000 ! KW= 0 
New Load.26824809_3 Phases= 1  Bus1=26824809.3 kV= 7.19976905311778  XFKVA=250.000000 PF= 0.968558366413024  NumCust=22.667000 ! KW= 0 
New Load.103013366_1 Phases= 1  Bus1=103013366.1 kV= 7.19976905311778  XFKVA=333.333333 PF= 0.96906915094419  NumCust=2.333000 ! KW= 0 
New Load.103013366_2 Phases= 1  Bus1=103013366.2 kV= 7.19976905311778  XFKVA=333.333333 PF= 0.966076893409833  NumCust=2.333000 ! KW= 0 
New Load.103013366_3 Phases= 1  Bus1=103013366.3 kV= 7.19976905311778  XFKVA=333.333333 PF= 0.968558366413024  NumCust=2.333000 ! KW= 0 
New Load.103013371_1 Phases= 1  Bus1=103013371.1 kV= 7.19976905311778  XFKVA=833.333333 PF= 0.96906915094419  NumCust=2.333000 ! KW= 0 
New Load.103013371_2 Phases= 1  Bus1=103013371.2 kV= 7.19976905311778  XFKVA=833.333333 PF= 0.966076893409833  NumCust=2.333000 ! KW= 0 
New Load.103013371_3 Phases= 1  Bus1=103013371.3 kV= 7.19976905311778  XFKVA=833.333333 PF= 0.968558366413024  NumCust=2.333000 ! KW= 0 
New Load.26424523_1 Phases= 1  Bus1=26424523.1 kV= 7.19976905311778  XFKVA=833.333333 PF= 0.96906915094419  NumCust=2.667000 ! KW= 0 
New Load.26424523_2 Phases= 1  Bus1=26424523.2 kV= 7.19976905311778  XFKVA=833.333333 PF= 0.966076893409833  NumCust=2.667000 ! KW= 0 
New Load.26424523_3 Phases= 1  Bus1=26424523.3 kV= 7.19976905311778  XFKVA=833.333333 PF= 0.968558366413024  NumCust=2.667000 ! KW= 0 
New Load.103332075_1 Phases= 1  Bus1=103332075.1 kV= 7.19976905311778  XFKVA=833.333333 PF= 0.96906915094419  NumCust=2.667000 ! KW= 0 
New Load.103332075_2 Phases= 1  Bus1=103332075.2 kV= 7.19976905311778  XFKVA=833.333333 PF= 0.966076893409833  NumCust=2.667000 ! KW= 0 
New Load.103332075_3 Phases= 1  Bus1=103332075.3 kV= 7.19976905311778  XFKVA=833.333333 PF= 0.968558366413024  NumCust=2.667000 ! KW= 0 
New Load.103332076_1 Phases= 1  Bus1=103332076.1 kV= 7.19976905311778  XFKVA=333.333333 PF= 0.96906915094419  NumCust=2.667000 ! KW= 0 
New Load.103332076_2 Phases= 1  Bus1=103332076.2 kV= 7.19976905311778  XFKVA=333.333333 PF= 0.966076893409833  NumCust=2.667000 ! KW= 0 
New Load.103332076_3 Phases= 1  Bus1=103332076.3 kV= 7.19976905311778  XFKVA=333.333333 PF= 0.968558366413024  NumCust=2.667000 ! KW= 0 
New Load.1823845_2 Phases= 1  Bus1=1823845.2 kV= 7.19976905311778  XFKVA=100.000000 PF= 0.966076893409833  NumCust=0.667000 ! KW= 0 
New Load.1823845_3 Phases= 1  Bus1=1823845.3 kV= 7.19976905311778  XFKVA=100.000000 PF= 0.968558366413024  NumCust=0.667000 ! KW= 0 
New Load.1823845_1 Phases= 1  Bus1=1823845.1 kV= 7.19976905311778  XFKVA=100.000000 PF= 0.96906915094419  NumCust=0.667000 ! KW= 0 
New Load.1992431_1 Phases= 1  Bus1=1992431.1 kV= 7.19976905311778  XFKVA=100.000000 PF= 0.96906915094419  NumCust=0.333000 ! KW= 0 
New Load.1992431_2 Phases= 1  Bus1=1992431.2 kV= 7.19976905311778  XFKVA=100.000000 PF= 0.966076893409833  NumCust=0.333000 ! KW= 0 
New Load.1992431_3 Phases= 1  Bus1=1992431.3 kV= 7.19976905311778  XFKVA=100.000000 PF= 0.968558366413024  NumCust=0.333000 ! KW= 0 
New Load.26172320_2 Phases= 1  Bus1=26172320.2 kV= 7.19976905311778  XFKVA=167.000000 PF= 0.966076893409833  NumCust=1.000000 ! KW= 0 
