03_OpenDSS_Circuits/ERaleigh_Circuit_1/SwtControls.DSS
New Line.GT18BK__2890991 Bus1=1992535.1.2.3 Bus2=26449577.1.2.3 Switch=T
New SwtControl.GT18BK__2890991 SwitchedObj=Line.GT18BK__2890991 SwitchedTerm=1 Action=Closed Lock=no

New Line.11H260__2912107 Bus1=27043849.2 Bus2=26172320.2 Phases=1 Switch=T
New SwtControl.11H260__2912107 SwitchedObj=Line.11H260__2912107 SwitchedTerm=1 Action=Closed Lock=no

New Line.144581__2912130 Bus1=103004800.1.2.3 Bus2=26824809.1.2.3 Switch=T
New SwtControl.144581__2912130 SwitchedObj=Line.144581__2912130 SwitchedTerm=1 Action=Closed Lock=no

New Line.PGZ90__2888482 Bus1=26259143.1.2.3 Bus2=26259153.1.2.3 Switch=T
New SwtControl.PGZ90__2888482 SwitchedObj=Line.PGZ90__2888482 SwitchedTerm=1 Action=Closed Lock=no

New Line.PGZ90__2888483 Bus1=26259145.1.2.3 Bus2=26259143.1.2.3 Switch=T
New SwtControl.PGZ90__2888483 SwitchedObj=Line.PGZ90__2888483 SwitchedTerm=1 Action=Closed Lock=no

New Line.PGZ90__2888481 Bus1=26259143.1.2.3 Bus2=26259147.1.2.3 Switch=T
New SwtControl.PGZ90__2888481 SwitchedObj=Line.PGZ90__2888481 SwitchedTerm=1 Action=Closed Lock=no

New Line.11F134__2891001 Bus1=26449578.1.2.3 Bus2=27145130.1.2.3 Switch=T
New SwtControl.11F134__2891001 SwitchedObj=Line.11F134__2891001 SwitchedTerm=1 Action=Closed Lock=no

New Line.11F134__2891002 Bus1=27145131.1.2.3 Bus2=26424532.1.2.3 Switch=T
New SwtControl.11F134__2891002 SwitchedObj=Line.11F134__2891002 SwitchedTerm=1 Action=Closed Lock=no

New Line.11F134__2891003 Bus1=27145132.1.2.3 Bus2=26424531.1.2.3 Switch=T
New SwtControl.11F134__2891003 SwitchedObj=Line.11F134__2891003 SwitchedTerm=1 Action=Closed Lock=no

New Line.11F134__2891004 Bus1=27145133.1.2.3 Bus2=26424530.1.2.3 Switch=T
New SwtControl.11F134__2891004 SwitchedObj=Line.11F134__2891004 SwitchedTerm=1 Action=Closed Lock=no

!New Line.144581__2912129 Bus1=26824809.3 Bus2=103004796.3 Switch=T
!New SwtControl.144581__2912129 SwitchedObj=Line.144581__2912129 SwitchedTerm=1 Action=Closed Lock=no

New Line.RD506__2912120 Bus1=27043862.1.2.3 Bus2=1992431.1.2.3 Switch=T
New SwtControl.RD506__2912120 SwitchedObj=Line.RD506__2912120 SwitchedTerm=1 Action=Closed Lock=no

New Line.145754__103033502 Bus1=103013303.1.2.3 Bus2=103013368.1.2.3 Switch=T
New SwtControl.145754__103033502 SwitchedObj=Line.145754__103033502 SwitchedTerm=1 Action=Closed Lock=no

/*cant find*/
New Line.145754__103033501 Bus1=103013302.1.2.3 Bus2=103013365.1.2.3 Switch=T
New SwtControl.145754__103033501 SwitchedObj=Line.145754__103033501 SwitchedTerm=1 Action=Closed Lock=no

New Line.145754__103033348 Bus1=103013242 Bus2=103013278.1.2.3 Switch=T
New SwtControl.145754__103033348 SwitchedObj=Line.145754__103033348 SwitchedTerm=1 Action=Closed Lock=no

New Line.145754__103033346 Bus1=103013240.1.2.3 Bus2=103013317.1.2.3 Switch=T
New SwtControl.145754__103033346 SwitchedObj=Line.145754__103033346 SwitchedTerm=1 Action=Closed Lock=no

New Line.145754__103033347 Bus1=103013241.1.2.3 Bus2=103013319.1.2.3 Switch=T
New SwtControl.145754__103033347 SwitchedObj=Line.145754__103033347 SwitchedTerm=1 Action=Closed Lock=no

New Line.145754__103033345 Bus1=103013265.1.2.3 Bus2=103013239.1.2.3 Switch=T
New SwtControl.145754__103033345 SwitchedObj=Line.145754__103033345 SwitchedTerm=1 Action=Closed Lock=no

New Line.REA79__2842217 Bus1=26595445 Bus2=26595446.1.2.3 Switch=T
New SwtControl.REA79__2842217 SwitchedObj=Line.REA79__2842217 SwitchedTerm=1 Action=Closed Lock=no

New Line.PJ126__2892037 Bus1=27145219 Bus2=26512066.1.2.3 Switch=T
New SwtControl.PJ126__2892037 SwitchedObj=Line.PJ126__2892037 SwitchedTerm=1 Action=Closed Lock=no

New Line.PJ126__2892036 Bus1=27145218 Bus2=26512068.1.2.3 Switch=T
New SwtControl.PJ126__2892036 SwitchedObj=Line.PJ126__2892036 SwitchedTerm=1 Action=Closed Lock=no

New Line.PJ126__2892035 Bus1=27145217 Bus2=26424752.1.2.3 Switch=T
New SwtControl.PJ126__2892035 SwitchedObj=Line.PJ126__2892035 SwitchedTerm=1 Action=Closed Lock=no

New Line.PJ126__2892038 Bus1=26424757 Bus2=27145220.1.2.3 Switch=T
New SwtControl.PJ126__2892038 SwitchedObj=Line.PJ126__2892038 SwitchedTerm=1 Action=Closed Lock=no

New Line.187M75__104868786 Bus1=103603012 Bus2=103602979.1.2.3 Switch=T
New SwtControl.187M75__104868786 SwitchedObj=Line.187M75__104868786 SwitchedTerm=1 Action=Closed Lock=no

New Line.MA843__2912030 Bus1=27043772 Bus2=1823845.1.2.3 Switch=T
New SwtControl.MA843__2912030 SwitchedObj=Line.MA843__2912030 SwitchedTerm=1 Action=Closed Lock=no

New Line.11F134__2890998 Bus1=27145136 Bus2=103004798.1.2.3 Switch=T
New SwtControl.11F134__2890998 SwitchedObj=Line.11F134__2890998 SwitchedTerm=1 Action=Closed Lock=no

New Line.11F134__2890999 Bus1=27145137 Bus2=26424527.1.2.3 Switch=T
New SwtControl.11F134__2890999 SwitchedObj=Line.11F134__2890999 SwitchedTerm=1 Action=Closed Lock=no

New Line.11F134__2890996 Bus1=26424529 Bus2=27145134.1.2.3 Switch=T
New SwtControl.11F134__2890996 SwitchedObj=Line.11F134__2890996 SwitchedTerm=1 Action=Closed Lock=no

New Line.11F134__2890997 Bus1=27145135 Bus2=26424528.1.2.3 Switch=T
New SwtControl.11F134__2890997 SwitchedObj=Line.11F134__2890997 SwitchedTerm=1 Action=Closed Lock=no

New Line.145754__103033499 Bus1=103013321 Bus2=103013300.1.2.3 Switch=T
New SwtControl.145754__103033499 SwitchedObj=Line.145754__103033499 SwitchedTerm=1 Action=Closed Lock=no

New Line.PGZ90__2891086 Bus1=26424675 Bus2=103314247.1.2.3 Switch=T
New SwtControl.PGZ90__2891086 SwitchedObj=Line.PGZ90__2891086 SwitchedTerm=1 Action=Closed Lock=no

New Line.PGZ90__2891087 Bus1=26424675 Bus2=26259149.1.2.3 Switch=T
New SwtControl.PGZ90__2891087 SwitchedObj=Line.PGZ90__2891087 SwitchedTerm=1 Action=Closed Lock=no

New Line.PGZ90__2891088 Bus1=26424675 Bus2=26259150.1.2.3 Switch=T
New SwtControl.PGZ90__2891088 SwitchedObj=Line.PGZ90__2891088 SwitchedTerm=1 Action=Closed Lock=no

New Line.PGZ90__2891089 Bus1=26259148 Bus2=26424675.1.2.3 Switch=T
New SwtControl.PGZ90__2891089 SwitchedObj=Line.PGZ90__2891089 SwitchedTerm=1 Action=Closed Lock=no
