03_OpenDSS_Circuits/ERaleigh_Circuit_1/FuseSettings.DSS
New Line.GS83BK__2868704 phases=3 Bus1=1765896.1.2.3 Bus2=25028592.1.2.3 Switch=T
New Fuse.GS83BK__2868704 MonitoredObj=Line.GS83BK__2868704 MonitoredTerm=1 SwitchedObj=Line.GS83BK__2868704 SwitchedTerm=1 RatedCurrent= 1  enabled=F
New Line.GS80BK__2876680 phases=3 Bus1=1992588.1.2.3 Bus2=1992589.1.2.3 Switch=T
New Fuse.GS80BK__2876680 MonitoredObj=Line.GS80BK__2876680 MonitoredTerm=1 SwitchedObj=Line.GS80BK__2876680 SwitchedTerm=1 RatedCurrent= 65  enabled=F
New Line.GS90BK__103013462 phases=1 Bus1=1992558.2 Bus2=103004824.2 Switch=T
New Fuse.GS90BK__103013462 MonitoredObj=Line.GS90BK__103013462 MonitoredTerm=1 SwitchedObj=Line.GS90BK__103013462 SwitchedTerm=1 RatedCurrent= 1  enabled=F
New Line.REC47__2842711 phases=1 Bus1=1765890.2 Bus2=25113875.2 Switch=T
New Fuse.REC47__2842711 MonitoredObj=Line.REC47__2842711 MonitoredTerm=1 SwitchedObj=Line.REC47__2842711 SwitchedTerm=1 RatedCurrent= 1  enabled=F
