03_OpenDSS_Circuits/ERaleigh_Circuit_1/T5120B01_VLN_Node.Txt

LINE-GROUND and LINE-LINE VOLTAGES BY BUS & NODE

Bus               Node    VLN (kV)   Angle      pu     Base kV    Node-Node   VLL (kV)  Angle      pu

T5120B01_1 ...... 1       4.1204 /_   42.9   0.57231    12.470        1-2     12.429 /_   52.2   0.99667
   -              2       8.3892 /_ -123.2    1.1652    12.470        2-3     13.412 /_ -112.8    1.0756
   -              3       5.3811 /_   83.6   0.74742    12.470        3-1     3.5118 /_  133.6   0.28162
T5120B01_1_REG .. 1       4.4354 /_   45.9   0.61607    12.470        1-2     11.933 /_   52.7   0.95696
   -              2       7.5477 /_ -123.3    1.0484    12.470        2-3     13.098 /_ -112.6    1.0503
   -              3       5.8507 /_   81.2   0.81265    12.470        3-1     3.4011 /_  130.2   0.27274
26259236 ........ 1        4.732 /_   65.6   0.65726    12.470        1-2     12.137 /_   59.6   0.97332
   -              2       7.4471 /_ -124.1    1.0344    12.470        2-3     12.583 /_ -119.4     1.009
   -              3       5.1977 /_   67.4   0.72194    12.470        3-1    0.49076 /_   84.9  0.039355
26259145 ........ 1       4.7377 /_   65.6   0.65806    12.470        1-2     12.134 /_   59.6   0.97303
   -              2       7.4377 /_ -124.2    1.0331    12.470        2-3     12.579 /_ -119.4    1.0088
   -              3       5.2034 /_   67.4   0.72274    12.470        3-1    0.49076 /_   84.9  0.039355
26512068 ........ 1        4.741 /_   65.6   0.65852    12.470        1-2     12.131 /_   59.6   0.97282
   -              2       7.4319 /_ -124.2    1.0323    12.470        2-3     12.577 /_ -119.4    1.0085
   -              3       5.2067 /_   67.4   0.72319    12.470        3-1    0.49076 /_   84.9  0.039355
26512071 ........ 1       4.7411 /_   65.6   0.65852    12.470        1-2     12.131 /_   59.6   0.97282
   -              2       7.4319 /_ -124.2    1.0323    12.470        2-3     12.577 /_ -119.4    1.0085
   -              3       5.2067 /_   67.4   0.72319    12.470        3-1    0.49076 /_   84.9  0.039355
103004798 ....... 1       4.7321 /_   65.7   0.65728    12.470        1-2     12.143 /_   59.7    0.9738
   -              2       7.4535 /_ -124.1    1.0353    12.470        2-3     12.582 /_ -119.4     1.009
   -              3       5.1898 /_   67.4   0.72086    12.470        3-1    0.48061 /_   84.3  0.038541
103004800 ....... 1       4.9526 /_   66.5    0.6879    12.470        1-2     12.355 /_   60.1   0.99075
   -              2       7.4529 /_ -124.1    1.0352    12.470        2-3     12.369 /_ -119.8   0.99188
   -              3       4.9686 /_   66.6   0.69012    12.470        3-1   0.022954 /_  112.4 0.0018407
25028592 ........ 1       4.5341 /_   60.1   0.62977    12.470        1-2     12.014 /_   57.6   0.96343
   -              2        7.487 /_ -123.9    1.0399    12.470        2-3     12.767 /_ -117.3    1.0238
   -              3       5.3972 /_   71.8   0.74966    12.470        3-1     1.3227 /_  115.5   0.10607
27043772 ........ 1       4.5341 /_   60.1   0.62978    12.470        1-2     12.014 /_   57.6   0.96342
   -              2       7.4869 /_ -123.9    1.0399    12.470        2-3     12.767 /_ -117.3    1.0238
   -              3       5.3972 /_   71.8   0.74966    12.470        3-1     1.3227 /_  115.5   0.10607
26259149 ........ 1       4.7378 /_   65.6   0.65807    12.470        1-2     12.133 /_   59.6     0.973
   -              2       7.4374 /_ -124.2     1.033    12.470        2-3     12.579 /_ -119.4    1.0087
   -              3       5.2035 /_   67.4   0.72275    12.470        3-1    0.49076 /_   84.9  0.039355
27043862 ........ 1       4.7379 /_   65.6   0.65809    12.470        1-2     12.133 /_   59.6   0.97297
   -              2       7.4369 /_ -124.2     1.033    12.470        2-3     12.578 /_ -119.4    1.0087
   -              3       5.2036 /_   67.4   0.72276    12.470        3-1    0.49076 /_   84.9  0.039355
103013365 ....... 1       4.7421 /_   65.6   0.65867    12.470        1-2      12.13 /_   59.6   0.97274
   -              2       7.4298 /_ -124.2     1.032    12.470        2-3     12.576 /_ -119.4    1.0085
   -              3       5.2077 /_   67.4   0.72334    12.470        3-1    0.49076 /_   84.9  0.039355
103013366 ....... 1       4.7421 /_   65.6   0.65867    12.470        1-2      12.13 /_   59.6   0.97274
   -              2       7.4298 /_ -124.2     1.032    12.470        2-3     12.575 /_ -119.4    1.0085
   -              3       5.2077 /_   67.4   0.72334    12.470        3-1    0.49076 /_   84.9  0.039355
103013368 ....... 1       4.7421 /_   65.6   0.65867    12.470        1-2      12.13 /_   59.6   0.97274
   -              2       7.4298 /_ -124.2     1.032    12.470        2-3     12.575 /_ -119.4    1.0085
   -              3       5.2077 /_   67.4   0.72334    12.470        3-1    0.49076 /_   84.9  0.039355
103013369 ....... 1       4.7421 /_   65.6   0.65867    12.470        1-2      12.13 /_   59.6   0.97273
   -              2       7.4297 /_ -124.2     1.032    12.470        2-3     12.575 /_ -119.4    1.0085
   -              3       5.2078 /_   67.4   0.72334    12.470        3-1    0.49076 /_   84.9  0.039355
26259153 ........ 1       4.7377 /_   65.6   0.65806    12.470        1-2     12.133 /_   59.6     0.973
   -              2       7.4375 /_ -124.2     1.033    12.470        2-3     12.579 /_ -119.4    1.0087
   -              3       5.2034 /_   67.4   0.72274    12.470        3-1    0.49076 /_   84.9  0.039355
26424757 ........ 1        4.741 /_   65.6   0.65852    12.470        1-2     12.131 /_   59.6   0.97283
   -              2        7.432 /_ -124.2    1.0323    12.470        2-3     12.577 /_ -119.4    1.0086
   -              3       5.2067 /_   67.4   0.72319    12.470        3-1    0.49076 /_   84.9  0.039355
1823870 ......... 1       4.4377 /_   46.0   0.61638    12.470        1-2     11.936 /_   52.7   0.95717
   -              2       7.5474 /_ -123.3    1.0483    12.470        2-3     13.093 /_ -112.6      1.05
   -              3       5.8458 /_   81.2   0.81197    12.470        3-1     3.3902 /_  130.3   0.27187
26595445 ........ 1       4.4577 /_   46.6   0.61916    12.470        1-2     11.955 /_   52.9   0.95873
   -              2       7.5415 /_ -123.3    1.0475    12.470        2-3     13.059 /_ -112.8    1.0472
   -              3       5.8095 /_   80.9   0.80693    12.470        3-1     3.2958 /_  130.7    0.2643
26424531 ........ 1       4.7144 /_   65.4   0.65482    12.470        1-2     12.129 /_   59.6   0.97265
   -              2       7.4547 /_ -124.1    1.0354    12.470        2-3     12.598 /_ -119.3    1.0103
   -              3       5.2072 /_   67.6   0.72327    12.470        3-1    0.52618 /_   87.1  0.042196
103332076 ....... 1       4.7145 /_   65.4   0.65483    12.470        1-2     12.129 /_   59.6   0.97265
   -              2       7.4546 /_ -124.1    1.0354    12.470        2-3     12.598 /_ -119.3    1.0103
   -              3       5.2072 /_   67.6   0.72327    12.470        3-1    0.52618 /_   87.1  0.042196
103332079 ....... 1       4.7144 /_   65.4   0.65482    12.470
26259150 ........ 1       4.7378 /_   65.6   0.65807    12.470        1-2     12.133 /_   59.6     0.973
   -              2       7.4374 /_ -124.2     1.033    12.470        2-3     12.579 /_ -119.4    1.0087
   -              3       5.2035 /_   67.4   0.72275    12.470        3-1    0.49076 /_   84.9  0.039355
26259151 ........ 1       4.7378 /_   65.6   0.65807    12.470        1-2     12.133 /_   59.6     0.973
   -              2       7.4373 /_ -124.2     1.033    12.470        2-3     12.579 /_ -119.4    1.0087
   -              3       5.2035 /_   67.4   0.72275    12.470        3-1    0.49076 /_   84.9  0.039355
26259147 ........ 1       4.7377 /_   65.6   0.65806    12.470        1-2     12.133 /_   59.6   0.97301
   -              2       7.4376 /_ -124.2    1.0331    12.470        2-3     12.579 /_ -119.4    1.0087
   -              3       5.2034 /_   67.4   0.72274    12.470        3-1    0.49076 /_   84.9  0.039355
26259148 ........ 1       4.7378 /_   65.6   0.65807    12.470        1-2     12.133 /_   59.6   0.97301
   -              2       7.4374 /_ -124.2     1.033    12.470        2-3     12.579 /_ -119.4    1.0087
   -              3       5.2035 /_   67.4   0.72275    12.470        3-1    0.49076 /_   84.9  0.039355
103013278 ....... 1       4.7419 /_   65.6   0.65864    12.470        1-2      12.13 /_   59.6   0.97275
   -              2       7.4302 /_ -124.2     1.032    12.470        2-3     12.576 /_ -119.4    1.0085
   -              3       5.2076 /_   67.4   0.72332    12.470        3-1    0.49076 /_   84.9  0.039355
103013321 ....... 1       4.7421 /_   65.6   0.65867    12.470        1-2      12.13 /_   59.6   0.97274
   -              2       7.4299 /_ -124.2     1.032    12.470        2-3     12.576 /_ -119.4    1.0085
   -              3       5.2077 /_   67.4   0.72334    12.470        3-1    0.49076 /_   84.9  0.039355
26424527 ........ 1       4.7282 /_   65.6   0.65673    12.470        1-2      12.14 /_   59.6   0.97351
   -              2       7.4533 /_ -124.1    1.0353    12.470        2-3     12.585 /_ -119.4    1.0092
   -              3       5.1939 /_   67.4   0.72142    12.470        3-1    0.49076 /_   84.9  0.039355
103004792 ....... 1         4.73 /_   65.6   0.65699    12.470        1-2     12.139 /_   59.6   0.97342
   -              2       7.4504 /_ -124.1    1.0348    12.470        2-3     12.584 /_ -119.4    1.0092
   -              3       5.1957 /_   67.4   0.72167    12.470        3-1    0.49076 /_   84.9  0.039355
26512066 ........ 1        4.741 /_   65.6   0.65852    12.470        1-2     12.131 /_   59.6   0.97282
   -              2       7.4319 /_ -124.2    1.0323    12.470        2-3     12.577 /_ -119.4    1.0085
   -              3       5.2067 /_   67.4   0.72319    12.470        3-1    0.49076 /_   84.9  0.039355
26512070 ........ 1       4.7411 /_   65.6   0.65852    12.470        1-2     12.131 /_   59.6   0.97282
   -              2       7.4319 /_ -124.2    1.0323    12.470        2-3     12.577 /_ -119.4    1.0085
   -              3       5.2067 /_   67.4   0.72319    12.470        3-1    0.49076 /_   84.9  0.039355
26449577 ........ 1       4.6132 /_   64.0   0.64077    12.470        1-2     12.055 /_   59.0   0.96673
   -              2       7.4705 /_ -124.1    1.0376    12.470        2-3     12.688 /_ -118.8    1.0175
   -              3       5.2962 /_   68.8   0.73563    12.470        3-1    0.79722 /_   97.6  0.063931
26449578 ........ 1       4.7105 /_   65.4   0.65428    12.470        1-2     12.126 /_   59.6   0.97239
   -              2       7.4549 /_ -124.1    1.0355    12.470        2-3     12.602 /_ -119.3    1.0106
   -              3       5.2113 /_   67.6   0.72383    12.470        3-1    0.53658 /_   87.6   0.04303
103013238 ....... 1       4.7419 /_   65.6   0.65864    12.470        1-2      12.13 /_   59.6   0.97276
   -              2       7.4302 /_ -124.2     1.032    12.470        2-3     12.576 /_ -119.4    1.0085
   -              3       5.2076 /_   67.4   0.72332    12.470        3-1    0.49076 /_   84.9  0.039355
103013242 ....... 1       4.7419 /_   65.6   0.65864    12.470        1-2      12.13 /_   59.6   0.97276
   -              2       7.4302 /_ -124.2     1.032    12.470        2-3     12.576 /_ -119.4    1.0085
   -              3       5.2076 /_   67.4   0.72332    12.470        3-1    0.49076 /_   84.9  0.039355
103013241 ....... 1       4.7419 /_   65.6   0.65864    12.470        1-2      12.13 /_   59.6   0.97276
   -              2       7.4302 /_ -124.2     1.032    12.470        2-3     12.576 /_ -119.4    1.0085
   -              3       5.2076 /_   67.4   0.72332    12.470        3-1    0.49076 /_   84.9  0.039355
103013240 ....... 1       4.7419 /_   65.6   0.65864    12.470        1-2      12.13 /_   59.6   0.97276
   -              2       7.4302 /_ -124.2     1.032    12.470        2-3     12.576 /_ -119.4    1.0085
   -              3       5.2076 /_   67.4   0.72332    12.470        3-1    0.49076 /_   84.9  0.039355
103013239 ....... 1       4.7419 /_   65.6   0.65864    12.470        1-2      12.13 /_   59.6   0.97276
   -              2       7.4302 /_ -124.2     1.032    12.470        2-3     12.576 /_ -119.4    1.0085
   -              3       5.2076 /_   67.4   0.72332    12.470        3-1    0.49076 /_   84.9  0.039355
103004824 ....... 2       7.4839 /_ -124.0    1.0395    12.470
27043849 ........ 1       7.4838 /_ -124.0    1.0395    12.470        1-2 8.0501E-006 /_   86.1 6.4556E-007
   -              2       7.4838 /_ -124.0    1.0395    12.470        2-3     7.0162 /_ -124.0   0.56264
   -              3      0.46768 /_ -124.0  0.064959    12.470        3-1     7.0162 /_   56.0   0.56264
26424752 ........ 1        4.741 /_   65.6   0.65852    12.470        1-2     12.131 /_   59.6   0.97281
   -              2       7.4318 /_ -124.2    1.0323    12.470        2-3     12.576 /_ -119.4    1.0085
   -              3       5.2067 /_   67.4   0.72319    12.470        3-1    0.49076 /_   84.9  0.039355
103013265 ....... 1       4.7419 /_   65.6   0.65864    12.470        1-2      12.13 /_   59.6   0.97277
   -              2       7.4303 /_ -124.2    1.0321    12.470        2-3     12.576 /_ -119.4    1.0085
   -              3       5.2076 /_   67.4   0.72332    12.470        3-1    0.49076 /_   84.9  0.039355
103004805 ....... 1            0 /_    0.0         0    12.470        1-2          0 /_    0.0         0
   -              2            0 /_    0.0         0    12.470        2-3     4.9686 /_ -113.4   0.39844
   -              3       4.9686 /_   66.6   0.69012    12.470        3-1     4.9686 /_   66.6   0.39844
26424528 ........ 1       4.7282 /_   65.6   0.65673    12.470        1-2      12.14 /_   59.6   0.97352
   -              2       7.4535 /_ -124.1    1.0353    12.470        2-3     12.585 /_ -119.4    1.0093
   -              3       5.1939 /_   67.4   0.72142    12.470        3-1    0.49076 /_   84.9  0.039355
103332075 ....... 1       4.7282 /_   65.6   0.65674    12.470        1-2      12.14 /_   59.6   0.97352
   -              2       7.4534 /_ -124.1    1.0353    12.470        2-3     12.585 /_ -119.4    1.0092
   -              3       5.1939 /_   67.4   0.72142    12.470        3-1    0.49076 /_   84.9  0.039355
26424532 ........ 1       4.7144 /_   65.4   0.65482    12.470        1-2     12.129 /_   59.6   0.97265
   -              2       7.4546 /_ -124.1    1.0354    12.470        2-3     12.598 /_ -119.3    1.0103
   -              3       5.2072 /_   67.6   0.72327    12.470        3-1    0.52618 /_   87.1  0.042196
26424523 ........ 1       4.7145 /_   65.4   0.65483    12.470        1-2     12.129 /_   59.6   0.97264
   -              2       7.4545 /_ -124.1    1.0354    12.470        2-3     12.598 /_ -119.3    1.0103
   -              3       5.2072 /_   67.6   0.72327    12.470        3-1    0.52618 /_   87.1  0.042196
26424530 ........ 1       4.7184 /_   65.5   0.65537    12.470        1-2     12.132 /_   59.6   0.97291
   -              2       7.4545 /_ -124.1    1.0354    12.470        2-3     12.594 /_ -119.3      1.01
   -              3       5.2031 /_   67.5    0.7227    12.470        3-1    0.51583 /_   86.5  0.041366
26424529 ........ 1       4.7243 /_   65.6   0.65619    12.470        1-2     12.137 /_   59.6   0.97326
   -              2       7.4537 /_ -124.1    1.0353    12.470        2-3     12.589 /_ -119.4    1.0096
   -              3        5.198 /_   67.4   0.72198    12.470        3-1    0.50097 /_   85.5  0.040174
26449576 ........ 1       4.7144 /_   65.4   0.65482    12.470        1-2     12.129 /_   59.6   0.97265
   -              2       7.4547 /_ -124.1    1.0354    12.470        2-3     12.598 /_ -119.3    1.0103
   -              3       5.2072 /_   67.6   0.72327    12.470        3-1    0.52618 /_   87.1  0.042196
27145133 ........ 1       4.7144 /_   65.4   0.65482    12.470        1-2     12.129 /_   59.6   0.97265
   -              2       7.4547 /_ -124.1    1.0354    12.470        2-3     12.598 /_ -119.3    1.0103
   -              3       5.2072 /_   67.6   0.72327    12.470        3-1    0.52618 /_   87.1  0.042196
27145132 ........ 1       4.7144 /_   65.4   0.65482    12.470        1-2     12.129 /_   59.6   0.97265
   -              2       7.4547 /_ -124.1    1.0354    12.470        2-3     12.598 /_ -119.3    1.0103
   -              3       5.2072 /_   67.6   0.72327    12.470        3-1    0.52618 /_   87.1  0.042196
27145131 ........ 1       4.7144 /_   65.4   0.65482    12.470        1-2     12.129 /_   59.6   0.97265
   -              2       7.4547 /_ -124.1    1.0354    12.470        2-3     12.598 /_ -119.3    1.0103
   -              3       5.2072 /_   67.6   0.72327    12.470        3-1    0.52618 /_   87.1  0.042196
27145130 ........ 1       4.7144 /_   65.4   0.65482    12.470        1-2     12.129 /_   59.6   0.97265
   -              2       7.4547 /_ -124.1    1.0354    12.470        2-3     12.598 /_ -119.3    1.0103
   -              3       5.2072 /_   67.6   0.72327    12.470        3-1    0.52618 /_   87.1  0.042196
103013299 ....... 1       4.7421 /_   65.6   0.65867    12.470        1-2      12.13 /_   59.6   0.97274
   -              2       7.4298 /_ -124.2     1.032    12.470        2-3     12.576 /_ -119.4    1.0085
   -              3       5.2077 /_   67.4   0.72334    12.470        3-1    0.49076 /_   84.9  0.039355
103013303 ....... 1       4.7421 /_   65.6   0.65867    12.470        1-2      12.13 /_   59.6   0.97274
   -              2       7.4298 /_ -124.2     1.032    12.470        2-3     12.576 /_ -119.4    1.0085
   -              3       5.2077 /_   67.4   0.72334    12.470        3-1    0.49076 /_   84.9  0.039355
103013301 ....... 1       4.7421 /_   65.6   0.65867    12.470        1-2      12.13 /_   59.6   0.97274
   -              2       7.4298 /_ -124.2     1.032    12.470        2-3     12.576 /_ -119.4    1.0085
   -              3       5.2077 /_   67.4   0.72334    12.470        3-1    0.49076 /_   84.9  0.039355
103013302 ....... 1       4.7421 /_   65.6   0.65867    12.470        1-2      12.13 /_   59.6   0.97274
   -              2       7.4298 /_ -124.2     1.032    12.470        2-3     12.576 /_ -119.4    1.0085
   -              3       5.2077 /_   67.4   0.72334    12.470        3-1    0.49076 /_   84.9  0.039355
103013300 ....... 1       4.7421 /_   65.6   0.65867    12.470        1-2      12.13 /_   59.6   0.97274
   -              2       7.4298 /_ -124.2     1.032    12.470        2-3     12.576 /_ -119.4    1.0085
   -              3       5.2077 /_   67.4   0.72334    12.470        3-1    0.49076 /_   84.9  0.039355
26512065 ........ 1        4.741 /_   65.6   0.65852    12.470        1-2     12.131 /_   59.6   0.97282
   -              2       7.4319 /_ -124.2    1.0323    12.470        2-3     12.577 /_ -119.4    1.0085
   -              3       5.2067 /_   67.4   0.72319    12.470        3-1    0.49076 /_   84.9  0.039355
27145217 ........ 1        4.741 /_   65.6   0.65852    12.470        1-2     12.131 /_   59.6   0.97282
   -              2       7.4319 /_ -124.2    1.0323    12.470        2-3     12.577 /_ -119.4    1.0085
   -              3       5.2067 /_   67.4   0.72319    12.470        3-1    0.49076 /_   84.9  0.039355
27145220 ........ 1        4.741 /_   65.6   0.65852    12.470        1-2     12.131 /_   59.6   0.97282
   -              2       7.4319 /_ -124.2    1.0323    12.470        2-3     12.577 /_ -119.4    1.0085
   -              3       5.2067 /_   67.4   0.72319    12.470        3-1    0.49076 /_   84.9  0.039355
26449575 ........ 1       4.7282 /_   65.6   0.65673    12.470        1-2      12.14 /_   59.6   0.97353
   -              2       7.4535 /_ -124.1    1.0353    12.470        2-3     12.585 /_ -119.4    1.0093
   -              3       5.1939 /_   67.4   0.72142    12.470        3-1    0.49076 /_   84.9  0.039355
27145137 ........ 1       4.7282 /_   65.6   0.65673    12.470        1-2      12.14 /_   59.6   0.97353
   -              2       7.4535 /_ -124.1    1.0353    12.470        2-3     12.585 /_ -119.4    1.0093
   -              3       5.1939 /_   67.4   0.72142    12.470        3-1    0.49076 /_   84.9  0.039355
27145219 ........ 1        4.741 /_   65.6   0.65852    12.470        1-2     12.131 /_   59.6   0.97282
   -              2       7.4319 /_ -124.2    1.0323    12.470        2-3     12.577 /_ -119.4    1.0085
   -              3       5.2067 /_   67.4   0.72319    12.470        3-1    0.49076 /_   84.9  0.039355
27145136 ........ 1       4.7282 /_   65.6   0.65673    12.470        1-2      12.14 /_   59.6   0.97353
   -              2       7.4535 /_ -124.1    1.0353    12.470        2-3     12.585 /_ -119.4    1.0093
   -              3       5.1939 /_   67.4   0.72142    12.470        3-1    0.49076 /_   84.9  0.039355
27145218 ........ 1        4.741 /_   65.6   0.65852    12.470        1-2     12.131 /_   59.6   0.97282
   -              2       7.4319 /_ -124.2    1.0323    12.470        2-3     12.577 /_ -119.4    1.0085
   -              3       5.2067 /_   67.4   0.72319    12.470        3-1    0.49076 /_   84.9  0.039355
27145135 ........ 1       4.7282 /_   65.6   0.65673    12.470        1-2      12.14 /_   59.6   0.97353
...
T5120B01_10000013 1       4.4516 /_   51.5   0.61831    12.470        1-2     11.965 /_   54.6   0.95947
   -              2       7.5238 /_ -123.5     1.045    12.470        2-3     12.948 /_ -114.4    1.0383
   -              3       5.6471 /_   77.8   0.78437    12.470        3-1     2.5804 /_  127.8   0.20693
1823868 ......... 1       4.4516 /_   51.5   0.61831    12.470        1-2     11.965 /_   54.6   0.95947
   -              2       7.5238 /_ -123.5     1.045    12.470        2-3     12.948 /_ -114.4    1.0383
   -              3       5.6471 /_   77.8   0.78437    12.470        3-1     2.5804 /_  127.8   0.20693
1823815 ......... 1       4.4531 /_   48.1   0.61852    12.470        1-2     11.958 /_   53.5   0.95892
   -              2       7.5358 /_ -123.4    1.0467    12.470        2-3     13.022 /_ -113.3    1.0443
   -              3       5.7556 /_   79.9   0.79944    12.470        3-1     3.0679 /_  129.9   0.24603
1992535 ......... 1       4.6094 /_   64.0   0.64024    12.470        1-2     12.052 /_   59.0   0.96647
   -              2       7.4708 /_ -124.1    1.0377    12.470        2-3     12.692 /_ -118.7    1.0178
   -              3       5.3003 /_   68.8    0.7362    12.470        3-1    0.80832 /_   97.8  0.064821
1823850 ......... 1       4.4519 /_   51.8   0.61835    12.470        1-2     11.965 /_   54.7   0.95951
   -              2       7.5227 /_ -123.5    1.0449    12.470        2-3     12.942 /_ -114.5    1.0379
   -              3       5.6383 /_   77.6   0.78315    12.470        3-1     2.5379 /_  127.6   0.20352
1823818 ......... 1        4.454 /_   52.8   0.61864    12.470        1-2     11.967 /_   55.1   0.95968
   -              2       7.5188 /_ -123.6    1.0443    12.470        2-3     12.921 /_ -114.8    1.0362
   -              3       5.6066 /_   76.9   0.77874    12.470        3-1     2.3825 /_  126.6   0.19106
1992553 ......... 1       4.5656 /_   61.9   0.63415    12.470        1-2     12.031 /_   58.2   0.96476
   -              2       7.4798 /_ -124.0    1.0389    12.470        2-3     12.732 /_ -118.0     1.021
   -              3       5.3522 /_   70.5    0.7434    12.470        3-1     1.0828 /_  109.8  0.086832
25113875 ........ 2       7.5083 /_ -123.7    1.0429    12.470
1823847 ......... 2       7.5083 /_ -123.7    1.0429    12.470
1823813 ......... 1       4.4472 /_   49.6   0.61771    12.470        1-2     11.958 /_   54.0   0.95895
   -              2       7.5317 /_ -123.4    1.0461    12.470        2-3     12.991 /_ -113.8    1.0418
   -              3       5.7075 /_   79.0   0.79275    12.470        3-1     2.8526 /_  129.0   0.22876
1992550 ......... 1       4.5772 /_   62.4   0.63576    12.470        1-2     12.036 /_   58.4   0.96523
   -              2       7.4773 /_ -124.0    1.0386    12.470        2-3     12.721 /_ -118.2    1.0201
   -              3       5.3374 /_   70.0   0.74136    12.470        3-1     1.0044 /_  107.2  0.080542
T5120B01_10000012 1       4.5341 /_   60.1   0.62977    12.470        1-2     12.014 /_   57.6   0.96345
   -              2       7.4873 /_ -123.9      1.04    12.470        2-3     12.767 /_ -117.3    1.0238
   -              3       5.3971 /_   71.8   0.74965    12.470        3-1     1.3227 /_  115.5   0.10607
1823824 ......... 2       7.5082 /_ -123.7    1.0429    12.470
GT28BK_103013451  1       4.5884 /_   63.0   0.63732    12.470        1-2     12.042 /_   58.6   0.96568
   -              2       7.4749 /_ -124.1    1.0382    12.470        2-3      12.71 /_ -118.4    1.0193
   -              3       5.3241 /_   69.6    0.7395    12.470        3-1    0.93378 /_  104.4  0.074882
1992539 ......... 1       4.6035 /_   63.7   0.63941    12.470        1-2     12.049 /_   58.9   0.96628
   -              2       7.4719 /_ -124.1    1.0378    12.470        2-3     12.697 /_ -118.6    1.0182
   -              3       5.3072 /_   69.1   0.73716    12.470        3-1    0.84617 /_  100.2  0.067856
103602979 ....... 1       4.7421 /_   65.6   0.65867    12.470        1-2      12.13 /_   59.6    0.9727
   -              2       7.4294 /_ -124.2    1.0319    12.470        2-3     12.575 /_ -119.4    1.0084
   -              3       5.2077 /_   67.4   0.72334    12.470        3-1    0.49076 /_   84.9  0.039355
26824809 ........ 1       4.9566 /_   66.5   0.68846    12.470        1-2     12.358 /_   60.1   0.99104
   -              2       7.4528 /_ -124.1    1.0352    12.470        2-3     12.365 /_ -119.8    0.9916
   -              3       4.9646 /_   66.6   0.68957    12.470        3-1   0.011477 /_  112.4 0.00092037
1823845 ......... 1       4.5341 /_   60.1   0.62978    12.470        1-2     12.014 /_   57.6   0.96342
   -              2       7.4869 /_ -123.9    1.0399    12.470        2-3     12.767 /_ -117.3    1.0238
   -              3       5.3972 /_   71.8   0.74966    12.470        3-1     1.3227 /_  115.5   0.10607
1992431 ......... 1       4.7379 /_   65.6   0.65809    12.470        1-2     12.133 /_   59.6   0.97297
   -              2       7.4369 /_ -124.2     1.033    12.470        2-3     12.578 /_ -119.4    1.0087
   -              3       5.2036 /_   67.4   0.72276    12.470        3-1    0.49076 /_   84.9  0.039355
26172320 ........ 2       7.4838 /_ -124.0    1.0395    12.470        2-3    0.49076 /_   84.9  0.039355
   -              3      0.46768 /_ -124.0  0.064959    12.470
26259143 ........ 1       4.7377 /_   65.6   0.65806    12.470        1-2     12.133 /_   59.6   0.97301
   -              2       7.4376 /_ -124.2    1.0331    12.470        2-3     12.579 /_ -119.4    1.0087
   -              3       5.2034 /_   67.4   0.72274    12.470        3-1    0.49076 /_   84.9  0.039355
103004796 ....... 2       7.4528 /_ -124.1    1.0352    12.470        2-3    0.49076 /_   84.9  0.039355
   -              3       4.9606 /_   66.5   0.68901    12.470
25680881 ........ 2            0 /_    0.0         0    12.470        2-3     4.9606 /_   66.5    0.3978
   -              3            0 /_    0.0         0    12.470
26424675 ........ 1       4.7378 /_   65.6   0.65807    12.470        1-2     12.133 /_   59.6     0.973
   -              2       7.4374 /_ -124.2     1.033    12.470        2-3     12.579 /_ -119.4    1.0087
   -              3       5.2035 /_   67.4   0.72275    12.470        3-1    0.49076 /_   84.9  0.039355
